comentario
VSIN 1 0 SIN 1 5 1 0.2 0.5 45 4
R1 3 0 1
R2 2 3 1
R3 1 2 2
OPAMP 2 0 1 3
.TRAN 5 0.01 ADMO1 1 UIC 
