wtvr
N0200 1 0 -2 1.1 -1 0.7 1 -0.7 2 -1.1
VSIN 1 0 SIN 0 3 1 0 0 0 0
.TRAN 2 0.01 ADMO3 1 UIC
