questao 1
C1 1 0 2
F1 2 1 2 3 2
C2 2 0 1 IC=10
R1 3 0 1
.TRAN 10 0.01 ADMO2 1 UIC
