5
I1 0 1 DC 1
R1 2 0 5
R2 3 0 4
R3 4 3 2
R4 5 2 1
V1 3 1 DC 2
G1 2 4 3 0 4
E1 4 0 2 4 2
F1 3 0 1 5 6
.TRAN 10 1 ADMO1 1 UIC 
