comment
VSIN 1 0 SIN 1 5 1 0.2 0.5 45 4 
.TRAN 5 0.01 ADMO1 1 UIC
